
OS:Version,
  {ed035634-8ae9-4a34-a8bb-b8a1533c3d52}, !- Handle
  3.9.0;                                  !- Version Identifier

OS:ScheduleTypeLimits,
  {c50de33e-2a31-403b-929e-8d1c42a993ef}, !- Handle
  Fractional_dhw,                         !- Name
  0,                                      !- Lower Limit Value
  1,                                      !- Upper Limit Value
  Continuous;                             !- Numeric Type

OS:Schedule:Ruleset,
  {ae289199-a383-4274-8323-639233600652}, !- Handle
  dhw_load_profile,                       !- Name
  {c50de33e-2a31-403b-929e-8d1c42a993ef}, !- Schedule Type Limits Name
  {74834dd4-691d-476d-8e50-fbea2e7108b1}; !- Default Day Schedule Name

OS:Schedule:Day,
  {74834dd4-691d-476d-8e50-fbea2e7108b1}, !- Handle
  Schedule Day 16,                        !- Name
  {c50de33e-2a31-403b-929e-8d1c42a993ef}, !- Schedule Type Limits Name
  No,                                     !- Interpolate to Timestep
  6,                                      !- Hour 1
  50,                                     !- Minute 1
  0,                                      !- Value Until Time 1
  6,                                      !- Hour 2
  55,                                     !- Minute 2
  0.58,                                   !- Value Until Time 2
  7,                                      !- Hour 3
  0,                                      !- Minute 3
  0.72,                                   !- Value Until Time 3
  7,                                      !- Hour 4
  5,                                      !- Minute 4
  0.0725,                                 !- Value Until Time 4
  7,                                      !- Hour 5
  45,                                     !- Minute 5
  0,                                      !- Value Until Time 5
  7,                                      !- Hour 6
  50,                                     !- Minute 6
  0.65,                                   !- Value Until Time 6
  7,                                      !- Hour 7
  55,                                     !- Minute 7
  0.74,                                   !- Value Until Time 7
  8,                                      !- Hour 8
  0,                                      !- Minute 8
  0.08,                                   !- Value Until Time 8
  18,                                     !- Hour 9
  30,                                     !- Minute 9
  0,                                      !- Value Until Time 9
  18,                                     !- Hour 10
  35,                                     !- Minute 10
  0.67,                                   !- Value Until Time 10
  18,                                     !- Hour 11
  40,                                     !- Minute 11
  0.74,                                   !- Value Until Time 11
  18,                                     !- Hour 12
  45,                                     !- Minute 12
  0.24,                                   !- Value Until Time 12
  19,                                     !- Hour 13
  0,                                      !- Minute 13
  0,                                      !- Value Until Time 13
  19,                                     !- Hour 14
  5,                                      !- Minute 14
  0.4,                                    !- Value Until Time 14
  19,                                     !- Hour 15
  10,                                     !- Minute 15
  0.09,                                   !- Value Until Time 15
  19,                                     !- Hour 16
  30,                                     !- Minute 16
  0,                                      !- Value Until Time 16
  19,                                     !- Hour 17
  35,                                     !- Minute 17
  0.025,                                  !- Value Until Time 17
  20,                                     !- Hour 18
  0,                                      !- Minute 18
  0,                                      !- Value Until Time 18
  20,                                     !- Hour 19
  5,                                      !- Minute 19
  0.21,                                   !- Value Until Time 19
  20,                                     !- Hour 20
  45,                                     !- Minute 20
  0,                                      !- Value Until Time 20
  20,                                     !- Hour 21
  50,                                     !- Minute 21
  0.21,                                   !- Value Until Time 21
  21,                                     !- Hour 22
  0,                                      !- Minute 22
  0.08,                                   !- Value Until Time 22
  21,                                     !- Hour 23
  5,                                      !- Minute 23
  0,                                      !- Value Until Time 23
  21,                                     !- Hour 24
  10,                                     !- Minute 24
  1,                                      !- Value Until Time 24
  21,                                     !- Hour 25
  30,                                     !- Minute 25
  0,                                      !- Value Until Time 25
  21,                                     !- Hour 26
  35,                                     !- Minute 26
  0.63,                                   !- Value Until Time 26
  21,                                     !- Hour 27
  45,                                     !- Minute 27
  0.73,                                   !- Value Until Time 27
  24,                                     !- Hour 28
  0,                                      !- Minute 28
  0;                                      !- Value Until Time 28

OS:Site,
  {cc6deb99-481c-4e5f-b601-12423928b978}, !- Handle
  Site 1,                                 !- Name
  ,                                       !- Latitude {deg}
  ,                                       !- Longitude {deg}
  ,                                       !- Time Zone {hr}
  ,                                       !- Elevation {m}
  ;                                       !- Terrain

OS:YearDescription,
  {d012f50d-647c-4312-9ebc-4a2f256ecc2d}; !- Handle

OS:ClimateZones,
  {09d5ed16-aba6-412f-bfd1-cb11adf8d622}, !- Handle
  ASHRAE,                                 !- Climate Zone Institution Name 1
  ANSI/ASHRAE Standard 169,               !- Climate Zone Document Name 1
  2006,                                   !- Climate Zone Document Year 1
  ,                                       !- Climate Zone Value 1
  CEC,                                    !- Climate Zone Institution Name 2
  California Climate Zone Descriptions,   !- Climate Zone Document Name 2
  1995,                                   !- Climate Zone Document Year 2
  ;                                       !- Climate Zone Value 2

OS:Building,
  {3e21f5db-512b-44ce-8395-713201b682ec}, !- Handle
  Building 1,                             !- Name
  ,                                       !- Building Sector Type
  ,                                       !- North Axis {deg}
  ,                                       !- Nominal Floor to Floor Height {m}
  ,                                       !- Space Type Name
  ,                                       !- Default Construction Set Name
  ;                                       !- Default Schedule Set Name

OS:Facility,
  {297ce9a2-c1ce-4dbb-aaf9-e2479a4b2e3d}; !- Handle

OS:SimulationControl,
  {3539d20a-5c59-46cf-9ec7-c1271da557b6}; !- Handle

OS:Sizing:Parameters,
  {5ae997dd-9ad2-43e2-8a80-876d67c2146f}, !- Handle
  1.25,                                   !- Heating Sizing Factor
  1.15;                                   !- Cooling Sizing Factor

OS:Timestep,
  {28083eff-85a3-44ee-8540-c37cd0b9a7b5}, !- Handle
  6;                                      !- Number of Timesteps per Hour

OS:ShadowCalculation,
  {796601e2-1408-4eed-bbe9-123306bd568f}, !- Handle
  PolygonClipping,                        !- Shading Calculation Method
  ,                                       !- Shading Calculation Update Frequency Method
  20,                                     !- Shading Calculation Update Frequency
  15000,                                  !- Maximum Figures in Shadow Overlap Calculations
  ,                                       !- Polygon Clipping Algorithm
  512,                                    !- Pixel Counting Resolution
  ,                                       !- Sky Diffuse Modeling Algorithm
  No,                                     !- Output External Shading Calculation Results
  No,                                     !- Disable Self-Shading Within Shading Zone Groups
  No;                                     !- Disable Self-Shading From Shading Zone Groups to Other Zones

OS:HeatBalanceAlgorithm,
  {8218b997-71a6-4e27-8690-31479fabd28a}, !- Handle
  ConductionTransferFunction,             !- Algorithm
  200;                                    !- Surface Temperature Upper Limit {C}

OS:RunPeriod,
  {0e89e633-45d1-48e8-86ef-449651f69b58}, !- Handle
  Run Period 1,                           !- Name
  1,                                      !- Begin Month
  1,                                      !- Begin Day of Month
  12,                                     !- End Month
  31,                                     !- End Day of Month
  ,                                       !- Use Weather File Holidays and Special Days
  ,                                       !- Use Weather File Daylight Saving Period
  ,                                       !- Apply Weekend Holiday Rule
  ,                                       !- Use Weather File Rain Indicators
  ,                                       !- Use Weather File Snow Indicators
  ;                                       !- Number of Times Runperiod to be Repeated

OS:LifeCycleCost:Parameters,
  {ebc3fbdd-3474-4329-b6ce-f474afa70ede}, !- Handle
  ,                                       !- Analysis Type
  ,                                       !- Discounting Convention
  ,                                       !- Inflation Approach
  ,                                       !- Real Discount Rate
  ,                                       !- Nominal Discount Rate
  ,                                       !- Inflation
  ,                                       !- Base Date Month
  ,                                       !- Base Date Year
  ,                                       !- Service Date Month
  ,                                       !- Service Date Year
  ;                                       !- Length of Study Period in Years

